Version 4
SHEET 1 880 680
WIRE 304 80 64 80
WIRE 304 96 304 80
WIRE 64 144 64 80
WIRE 304 176 304 160
WIRE 64 272 64 224
WIRE 304 272 304 256
WIRE 304 272 64 272
WIRE 64 288 64 272
FLAG 64 288 0
SYMBOL voltage 64 128 R0
SYMATTR InstName V1
SYMBOL diode 288 96 R0
SYMATTR InstName D1
SYMATTR Value 1N914
SYMBOL res 288 160 R0
SYMATTR InstName R1
SYMATTR Value 1k
TEXT -152 176 Left 2 !.dc V1 0 1.5 0.1
